/*--------------------------------*- C++ -*----------------------------------*\
| =========                 |                                                 |
| \\      /  F ield         | OpenFOAM: The Open Source CFD Toolbox           |
|  \\    /   O peration     | Version:  v1906                                 |
|   \\  /    A nd           | Web:      www.OpenFOAM.com                      |
|    \\/     M anipulation  |                                                 |
\*---------------------------------------------------------------------------*/
FoamFile
{
    version     2.0;
    format      ascii;
    class       dictionary;
    location    "system";
    object      controlDict;
}
// * * * * * * * * * * * * * * * * * * * * * * * * * * * * * * * * * * * * * //
DebugSwitches
{
    compressible::alphatWallBoilingWallFunction                 2;
    compressible::turbulentTemperatureTwoPhaseRadCoupledMixed   0;
}

application     chtMultiRegionTwoPhaseEulerFoam;

startFrom       startTime;

startTime       0;

stopAt          endTime;

endTime         5;

deltaT          1e-6;

writeControl    adjustable;

writeInterval   0.01;

purgeWrite      0;

writeFormat     ascii;

writePrecision  12;

writeCompression off;

timeFormat      general;

timePrecision   6;

runTimeModifiable yes;

maxCo           0.5;

// Maximum diffusion number
maxDi           10.0;

maxDeltaT       1e-3;

adjustTimeStep  yes;

functions
{
    htc
    {
        type            heatTransferCoeff;
        libs            ("libfieldFunctionObjects.so");
        region          water;
        field           T.liquid;
        outputControl   outputTime;
        htcModel        fixedReferenceTemperature;
        patches         (water_to_solid);
        TRef            373;
    }
}

// ************************************************************************* //
