/*--------------------------------*- C++ -*----------------------------------*\
| =========                 |                                                 |
| \\      /  F ield         | OpenFOAM: The Open Source CFD Toolbox           |
|  \\    /   O peration     | Version:  v1906                                 |
|   \\  /    A nd           | Web:      www.OpenFOAM.com                      |
|    \\/     M anipulation  |                                                 |
\*---------------------------------------------------------------------------*/
FoamFile
{
    version     2.0;
    format      ascii;
    class       dictionary;
    location    "system";
    object      fvSolution;
}
// * * * * * * * * * * * * * * * * * * * * * * * * * * * * * * * * * * * * * //

solvers
{
    "alpha.*"
    {
        vof2IsoTol      1e-8;
        surfCellTol     1e-8;
        nAlphaBounds    3;
        snapTol         0;
        clip            false;
        cAlpha          1;
        nAlphaSubCycles 1;
        reconstructionScheme plicRDF; // isoAlpha
    }
}


PIMPLE
{
    frozenFlow      yes;
    momentumPredictor no;
    nCorrectors     -1;
    nNonOrthogonalCorrectors -1;
    pRefCell        0;
    pRefValue       0;
}


// ************************************************************************* //
