/*--------------------------------*- C++ -*----------------------------------*\
| =========                 |                                                 |
| \\      /  F ield         | OpenFOAM: The Open Source CFD Toolbox           |
|  \\    /   O peration     | Version:  plus.feature-EulerEulerSolvers        |
|   \\  /    A nd           | Web:      www.OpenFOAM.com                      |
|    \\/     M anipulation  |                                                 |
\*---------------------------------------------------------------------------*/
FoamFile
{
    version     2.0;
    format      ascii;
    class       volScalarField;
    location    "0/solid";
    object      T;
}
// * * * * * * * * * * * * * * * * * * * * * * * * * * * * * * * * * * * * * //

dimensions      [ 0 0 0 1 0 0 0 ];

internalField   uniform 1123;

boundaryField
{
    #includeEtc "caseDicts/setConstraintTypes"

    innerWall
    {
        type            zeroGradient;
    }


    solid_to_water
    {
        type            compressible::turbulentTemperatureTwoPhaseRadCoupledMixed;
        value           uniform 1123;
        Tnbr            T.liquid;
        kappaMethod     solidThermo;
        region          solid;
        otherPhase      gas;
        qrNbr           none;
        qr              none;
    }
}


// ************************************************************************* //
