/*--------------------------------*- C++ -*----------------------------------*\
| =========                 |                                                 |
| \\      /  F ield         | OpenFOAM: The Open Source CFD Toolbox           |
|  \\    /   O peration     | Version:  v1912                                 |
|   \\  /    A nd           | Web:      www.OpenFOAM.com                      |
|    \\/     M anipulation  |                                                 |
\*---------------------------------------------------------------------------*/
FoamFile
{
    version     2.0;
    format      ascii;
    class       dictionary;
    object      MRFProperties;
    location    "constant";
}
// * * * * * * * * * * * * * * * * * * * * * * * * * * * * * * * * * * * * * //

VC_1
{
    cellZone        v_MRF;
    active          true;
    nonRotatingPatches ();
    origin          (-0.01 0.04 -0.06);
    axis            (1 0 0);
    omega           209.44;
}


// ************************************************************************* //
