/*--------------------------------*- C++ -*----------------------------------*\
  =========                 |
  \\      /  F ield         | OpenFOAM: The Open Source CFD Toolbox
   \\    /   O peration     | Website:  https://openfoam.org
    \\  /    A nd           | Version:  dev
     \\/     M anipulation  |
\*---------------------------------------------------------------------------*/
FoamFile
{
    version     2.0;
    format      ascii;
    class       dictionary;
    location    "system";
    object      controlDict;
}
// * * * * * * * * * * * * * * * * * * * * * * * * * * * * * * * * * * * * * //

DebugSwitches
{
    compressible::alphatWallBoilingWallFunction                 0;
    compressible::turbulentTemperatureTwoPhaseRadCoupledMixed   0;
}

application     chtMultiRegionTwoPhaseEulerFoam;

startFrom       startTime;

startTime       0;

stopAt          endTime;

endTime         3;

deltaT          1e-5;

writeControl    adjustableRunTime;

writeInterval   0.2;

purgeWrite      0;

writeFormat     ascii;

writePrecision  9;

writeCompression off;

timeFormat      general;

timePrecision   6;

runTimeModifiable yes;

adjustTimeStep  yes;

maxCo           1.2;

maxDi           100.0;

maxDeltaT       0.01;


functions
{
    fieldMinMax1
    {
        type            fieldMinMax;
        libs            ("libfieldFunctionObjects.so");
        writeControl    timeStep;
        writeInterval   10;
        log             yes;
        mode            magnitude;
        region          water;
        fields          (U.gas U.liquid T.gas T.liquid);
    }
    probes
    {
        type            probes;
        libs            ("libsampling.so");

        // Name of the directory for probe data
        name            probes;

        // Write at same frequency as fields
        writeControl    timeStep;
        writeInterval   10;

        // Fields to be probed
        fields          (T);
        region          solid;

        // Optional: interpolation scheme to use (default is cell)
        interpolationScheme cell;

        probeLocations
        (
            (6e-4 6e-4 50e-3)
        );
    }
}

// ************************************************************************* //
