/*--------------------------------*- C++ -*----------------------------------*\
| =========                 |                                                 |
| \\      /  F ield         | OpenFOAM: The Open Source CFD Toolbox           |
|  \\    /   O peration     | Version:  v1806                                 |
|   \\  /    A nd           | Web:      www.OpenFOAM.com                      |
|    \\/     M anipulation  |                                                 |
\*---------------------------------------------------------------------------*/
FoamFile
{
    version     2.0;
    format      ascii;
    class       dictionary;
    object      topoSetDict;
}

// * * * * * * * * * * * * * * * * * * * * * * * * * * * * * * * * * * * * * //

actions
(
    {
        name    heaterCellSet;
        type    cellSet;
        action  new;
        source  cylinderToCell;
        sourceInfo
        {
            p1 (0 0 30e-3);
            p2 (0 0 68e-3);
            radius 4.8e-3;
        }
    }

    {
        name    solid;
        type    cellZoneSet;
        action  new;
        source  setToCellZone;
        sourceInfo
        {
            set heaterCellSet;
        }
    }

     {
        name    bottomWaterCellSet;
        type    cellSet;
        action  new;
        source  cellToCell;
        sourceInfo
        {
            set heaterCellSet;
        }
    }

    {
        name    bottomWaterCellSet;
        type    cellSet;
        action  invert;
    }

    {
        name    water;
        type    cellZoneSet;
        action  new;
        source  setToCellZone;
        sourceInfo
        {
            set bottomWaterCellSet;
        }
    }
);


// ************************************************************************* //
