/*--------------------------------*- C++ -*----------------------------------*\
| =========                 |                                                 |
| \\      /  F ield         | OpenFOAM: The Open Source CFD Toolbox           |
|  \\    /   O peration     | Version:  plus                                  |
|   \\  /    A nd           | Web:      www.OpenFOAM.com                      |
|    \\/     M anipulation  |                                                 |
\*---------------------------------------------------------------------------*/
FoamFile
{
    version         2.0;
    format          ascii;
    class           dictionary;
    object          fvSolution;
    location        "system";
}

// * * * * * * * * * * * * * * * * * * * * * * * * * * * * * * * * * * * * * //

solvers
{

    h
    {
        solver          PCG;
        preconditioner  DIC;
        nSweeps         2;
        tolerance       1e-8;
        relTol          0.05;
    }
}

SIMPLE
{
    residualControl
    {
        default         1e-20;
    }
}

relaxationFactors
{

    fields
    {
    }

    equations
    {
        h               1;
    }
}

